AquaCrop 6.1 (May 2018) - Output created on (date) : 4/10/2022   at (time) : 2:23:57 PM
Crop development and production

** Run number:  1
   Day Month  Year   DAP Stage    GD       Z     StExp  StSto  StSen StSalt StWeed   CC      CCw     StTr  Kc(Tr)     Trx      Tr       TrW  Tr/Trx   WP    Biomass     HI  YieldPart  Brelative   WPet
                                °C-day     m       %      %      %      %      %      %       %       %       -        mm       mm       mm    %     g/m2    ton/ha      %    ton/ha       %      kg/m3
     3     6  2016     1    1    15.4    0.30     -9     -9     -9      0     -9     0.0     0.0      0    -9.00      0.0      0.0      0.0   100    19.5     0.000    -9.9    0.000       -9      0.00
     4     6  2016     2    1    17.1    0.30     -9     -9     -9      0     -9     0.0     0.0      0    -9.00      0.0      0.0      0.0   100    19.5     0.000    -9.9    0.000       -9      0.00
     5     6  2016     3    1    18.8    0.30     -9     -9     -9      0     -9     0.0     0.0      0    -9.00      0.0      0.0      0.0   100    19.5     0.000    -9.9    0.000       -9      0.00
     6     6  2016     4    1    16.9    0.30     -9     -9     -9      0     -9     0.0     0.0      0    -9.00      0.0      0.0      0.0   100    19.5     0.000    -9.9    0.000       -9      0.00
     7     6  2016     5    1    15.8    0.30     -9     -9     -9      0     -9     0.0     0.0      0    -9.00      0.0      0.0      0.0   100    19.5     0.000    -9.9    0.000       -9      0.00
     8     6  2016     6    1    16.1    0.30     -9     -9     -9      0     -9     0.0     0.0      0    -9.00      0.0      0.0      0.0   100    19.5     0.000    -9.9    0.000       -9      0.00
     9     6  2016     7    1    11.1    0.30     -9     -9     -9      0     -9     0.0     0.0      0    -9.00      0.0      0.0      0.0   100    19.5     0.000    -9.9    0.000       -9      0.00
    10     6  2016     8    1    10.4    0.30     -9     -9     -9      0     -9     0.0     0.0      0    -9.00      0.0      0.0      0.0   100    19.5     0.000    -9.9    0.000       -9      0.00
    11     6  2016     9    1    11.7    0.30     -9     -9     -9      0     -9     0.0     0.0      0    -9.00      0.0      0.0      0.0   100    19.5     0.000    -9.9    0.000       -9      0.00
    12     6  2016    10    1    15.0    0.31     -9     -9     -9      0     -9     0.0     0.0      0    -9.00      0.0      0.0      0.0   100    19.5     0.000    -9.9    0.000       -9      0.00
    13     6  2016    11    1    10.7    0.34     -9     -9     -9      0     -9     0.0     0.0      0    -9.00      0.0      0.0      0.0   100    19.5     0.000    -9.9    0.000       -9      0.00
    14     6  2016    12    1     8.8    0.37     -9     -9     -9      0     -9     0.0     0.0      0    -9.00      0.0      0.0      0.0   100    19.5     0.000    -9.9    0.000       -9      0.00
    15     6  2016    13    1     8.8    0.40     -9     -9     -9      0     -9     0.0     0.0      0    -9.00      0.0      0.0      0.0   100    19.5     0.000    -9.9    0.000       -9      0.00
    16     6  2016    14    1     9.1    0.42     -9     -9     -9      0     -9     0.0     0.0      0    -9.00      0.0      0.0      0.0   100    19.5     0.000    -9.9    0.000       -9      0.00
    17     6  2016    15    1    12.7    0.44     -9     -9     -9      0     -9     0.0     0.0      0    -9.00      0.0      0.0      0.0   100    19.5     0.000    -9.9    0.000       -9      0.00
    18     6  2016    16    1    11.3    0.46     -9     -9     -9      0     -9     0.0     0.0      0    -9.00      0.0      0.0      0.0   100    19.5     0.000    -9.9    0.000       -9      0.00
    19     6  2016    17    2    11.3    0.48     -9      0      0      0      0     0.7     0.7      0     0.01      0.0      0.0      0.0   100    19.5     0.003    -9.9    0.000      100      0.00
    20     6  2016    18    2    13.6    0.50      0      0      0      0      0     0.9     0.9      0     0.02      0.1      0.1      0.1   100    19.5     0.006    -9.9    0.000      100      0.00
    21     6  2016    19    2    13.9    0.52      0      0      0      0      0     1.1     1.1      0     0.02      0.1      0.1      0.1   100    19.5     0.010    -9.9    0.000      100      0.00
    22     6  2016    20    2    13.9    0.54      0      0      0      0      0     1.3     1.3      0     0.02      0.1      0.1      0.1   100    19.5     0.014    -9.9    0.000      100      0.00
    23     6  2016    21    2    13.3    0.56      0      0      0      0      0     1.5     1.5      0     0.03      0.1      0.1      0.1   100    19.5     0.020    -9.9    0.000      100      0.00
    24     6  2016    22    2    12.4    0.58      0      0      0      0      0     1.9     1.9      0     0.03      0.1      0.1      0.1   100    19.5     0.027    -9.9    0.000      100      0.00
    25     6  2016    23    2    14.4    0.59      0      0      0      0      0     2.3     2.3      0     0.04      0.1      0.1      0.1   100    19.5     0.035    -9.9    0.000      100      0.00
    26     6  2016    24    2    18.3    0.61      0      0      0      0      0     2.7     2.7      0     0.05      0.2      0.2      0.2   100    19.5     0.045    -9.9    0.000      100      0.00
    27     6  2016    25    2    17.3    0.63      0      0      0      0      0     3.3     3.3      0     0.06      0.2      0.2      0.2   100    19.5     0.056    -9.9    0.000      100      0.00
    28     6  2016    26    2    14.8    0.64      0      0      0      0      0     4.0     4.0      0     0.07      0.2      0.2      0.2   100    19.5     0.071    -9.9    0.000      100      0.00
    29     6  2016    27    2    14.6    0.66      0      0      0      0      0     4.8     4.8      0     0.09      0.3      0.3      0.3   100    19.5     0.088    -9.9    0.000      100      0.00
    30     6  2016    28    2    14.4    0.68      0      0      0      0      0     5.8     5.8      0     0.10      0.4      0.4      0.4   100    19.5     0.108    -9.9    0.000      100      0.00
     1     7  2016    29    2    14.4    0.69      0      0      0      0      0     7.0     7.0      0     0.13      0.4      0.4      0.4   100    19.5     0.133    -9.9    0.000      100      0.00
     2     7  2016    30    2    16.9    0.71      0      0      0      0      0     8.5     8.5      0     0.15      0.5      0.5      0.5   100    19.5     0.162    -9.9    0.000      100      0.00
     3     7  2016    31    2    15.4    0.72      0      0      0      0      0    10.2    10.2      0     0.18      0.6      0.6      0.6   100    19.5     0.197    -9.9    0.000      100      0.00
     4     7  2016    32    2    13.2    0.74      0      0      0      0      0    12.3    12.3      0     0.22      0.7      0.7      0.7   100    19.5     0.240    -9.9    0.000      100      0.00
     5     7  2016    33    2    14.8    0.75      0      0      0      0      0    14.9    14.9      0     0.26      0.8      0.8      0.8   100    19.5     0.290    -9.9    0.000      100      0.00
     6     7  2016    34    2    15.0    0.77      0      0      0      0      0    18.0    18.0      0     0.30      1.1      1.1      1.1   100    19.5     0.349    -9.9    0.000      100      0.00
     7     7  2016    35    2    15.4    0.78      0      0      0      0      0    21.7    21.7      0     0.36      0.8      0.8      0.8   100    19.5     0.419    -9.9    0.000      100      0.00
     8     7  2016    36    2    16.9    0.79      0      0      0      0      0    26.3    26.3      0     0.42      1.0      1.0      1.0   100    19.5     0.502    -9.9    0.000      100      0.00
     9     7  2016    37    2    15.0    0.81      0      0      0      0      0    31.7    31.7      0     0.50      1.3      1.3      1.3   100    19.5     0.598    -9.9    0.000      100      0.00
    10     7  2016    38    2    14.4    0.82      0      0      0      0      0    38.3    38.3      0     0.58      1.2      1.2      1.2   100    19.5     0.711    -9.9    0.000      100      0.00
    11     7  2016    39    2    12.6    0.83      0      0      0      0      0    46.3    46.3      0     0.67      1.9      1.9      1.9   100    19.5     0.841    -9.9    0.000      100      0.00
    12     7  2016    40    2    15.7    0.85      0      0      0      0      0    54.2    54.2      0     0.75      2.2      2.2      2.2   100    19.5     0.987    -9.9    0.000      100      0.00
    13     7  2016    41    2    15.4    0.86      0      0      0      0      0    60.7    60.7      0     0.81      2.9      2.9      2.9   100    19.5     1.145    -9.9    0.000      100      0.00
    14     7  2016    42    2    15.6    0.87      0      0      0      0      0    66.1    66.1      0     0.86      3.3      3.3      3.3   100    19.5     1.313    -9.9    0.000      100      0.00
    15     7  2016    43    2    14.1    0.89      0      0      0      0      0    70.5    70.5      0     0.89      3.1      3.1      3.1   100    19.5     1.487    -9.9    0.000      100      0.00
    16     7  2016    44    2    15.7    0.90      0      0      0      0      0    74.2    74.2      0     0.92      2.3      2.3      2.3   100    19.5     1.668    -9.9    0.000      100      0.00
    17     7  2016    45    2    15.9    0.91      0      0      0      0      0    77.3    77.3      0     0.95      2.0      2.0      2.0   100    19.5     1.853    -9.9    0.000      100      0.00
    18     7  2016    46    2    16.8    0.93      0      0      0      0      0    79.8    79.8      0     0.97      2.7      2.7      2.7   100    19.5     2.042    -9.9    0.000      100      0.00
    19     7  2016    47    2    16.5    0.94      1      0      0      0      0    81.9    81.9      0     0.98      2.9      2.9      2.9   100    19.5     2.234    -9.9    0.000      100      0.00
    20     7  2016    48    4    14.6    0.95      2      0      0      0      0    83.6    83.6      0     1.00      3.3      3.3      3.3   100    19.5     2.429    -9.9    0.000      100      0.00
    21     7  2016    49    4    14.9    0.96      2      0      0      0      0    85.0    85.0      0     1.01      3.0      3.0      3.0   100    19.5     2.626    -9.9    0.000      100      0.00
    22     7  2016    50    4    17.4    0.97      4      0      0      0      0    86.2    86.2      0     1.01      3.6      3.6      3.6   100    19.5     2.824    -9.9    0.000      100      0.00
    23     7  2016    51    4    15.9    0.99      5      0      0      0      0    87.1    87.1      0     1.02      3.7      3.7      3.7   100    19.5     3.024     1.4    0.042      100      0.06
    24     7  2016    52    4    15.4    1.00      7      0      0      0      0    87.9    87.9      0     1.03      3.8      3.8      3.8   100    19.5     3.224     1.6    0.050      100      0.07
    25     7  2016    53    4    16.9    1.01      7      0      0      0      0    88.6    88.6      0     1.03      3.4      3.4      3.4   100    19.5     3.426     1.8    0.060      100      0.08
    26     7  2016    54    4    16.0    1.02      9      0      0      0      0    89.1    89.1      0     1.04      3.6      3.6      3.6   100    19.5     3.628     2.0    0.071      100      0.09
    27     7  2016    55    4    16.1    1.03     10      0      0      0      0    89.6    89.6      0     1.04      3.6      3.6      3.6   100    19.5     3.831     2.2    0.084      100      0.10
    28     7  2016    56    4    16.6    1.05     14      0      0      0      0    89.9    89.9      0     1.04      4.1      4.1      4.1   100    19.5     4.035     2.4    0.098      100      0.11
    29     7  2016    57    4    16.8    1.06     16      0      0      0      0    90.2    90.2      0     1.04      4.0      4.0      4.0   100    19.5     4.239     2.7    0.115      100      0.12
    30     7  2016    58    4    15.9    1.07     -9      0      0      0      0    90.7    90.7      0     1.05      3.7      3.7      3.7   100    19.5     4.443     3.0    0.135      100      0.14
    31     7  2016    59    4    14.1    1.08     -9      0      0      0      0    91.0    91.0      0     1.05      3.4      3.4      3.4   100    19.5     4.648     3.4    0.158      100      0.16
     1     8  2016    60    4    14.6    1.09     -9      0      0      0      0    91.1    91.1      0     1.05      3.5      3.5      3.5   100    19.5     4.853     3.8    0.183      100      0.18
     2     8  2016    61    4    14.6    1.10     -9      0      0      0      0    91.3    91.3      0     1.05      2.9      2.9      2.9   100    19.5     5.059     4.2    0.213      100      0.20
     3     8  2016    62    4    15.1    1.11     -9      0      0      0      0    91.4    91.4      0     1.05      3.8      3.8      3.8   100    19.5     5.264     4.7    0.247      100      0.22
     4     8  2016    63    4    17.5    1.13     -9      0      0      0      0    91.5    91.5      0     1.05      4.7      4.7      4.7   100    19.5     5.470     5.2    0.285      100      0.25
     5     8  2016    64    4    16.4    1.14     -9      0      0      0      0    91.6    91.6      0     1.05      3.8      3.8      3.8   100    19.5     5.675     5.8    0.329      100      0.28
     6     8  2016    65    4    13.7    1.15     -9      0      0      0      0    91.7    91.7      0     1.05      3.3      3.3      3.3   100    19.5     5.880     6.4    0.378      100      0.31
     7     8  2016    66    4    13.1    1.16     -9      0      0      0      0    91.7    91.7      0     1.05      2.6      2.6      2.6   100    19.5     6.085     7.1    0.434      100      0.35
     8     8  2016    67    4    13.0    1.17     -9      0      0      0      0    91.8    91.8      0     1.05      2.1      2.1      2.1   100    19.5     6.290     7.9    0.497      100      0.39
     9     8  2016    68    4    15.1    1.18     -9      0      0      0      0    91.8    91.8      0     1.05      2.0      2.0      2.0   100    19.5     6.494     8.8    0.568      100      0.44
    10     8  2016    69    4    15.8    1.19     -9      0      0      0      0    91.8    91.8      0     1.05      3.1      3.1      3.1   100    19.5     6.699     9.7    0.648      100      0.49
    11     8  2016    70    4    15.7    1.20     -9      0      0      0      0    91.9    91.9      0     1.04      3.3      3.3      3.3   100    19.5     6.903    10.7    0.737      100      0.54
    12     8  2016    71    4    16.4    1.21     -9      0      0      0      0    91.9    91.9      0     1.04      3.3      3.3      3.3   100    19.5     7.107    11.8    0.836      100      0.60
    13     8  2016    72    4    17.4    1.22     -9      0      0      0      0    91.9    91.9      0     1.04      3.3      3.3      3.3   100    19.5     7.310    12.9    0.946      100      0.66
    14     8  2016    73    4    16.9    1.23     -9      0      0      0      0    91.9    91.9      0     1.04      3.5      3.5      3.5   100    19.5     7.514    14.2    1.067      100      0.73
    15     8  2016    74    4    15.9    1.24     -9      0      0      0      0    91.9    91.9      0     1.04      3.4      3.4      3.4   100    19.5     7.717    15.6    1.201      100      0.80
    16     8  2016    75    4    16.2    1.25     -9      0      0      0      0    91.9    91.9      0     1.04      3.3      3.3      3.3   100    19.5     7.920    17.0    1.348      100      0.88
    17     8  2016    76    4    15.8    1.26     -9      0      0      0      0    92.0    92.0      0     1.04      3.1      3.1      3.1   100    19.5     8.122    18.6    1.508      100      0.97
    18     8  2016    77    4    15.8    1.27     -9      0      0      0      0    92.0    92.0      0     1.04      3.4      3.4      3.4   100    19.5     8.325    20.2    1.682      100      1.06
    19     8  2016    78    4    17.0    1.29     -9      0      0      0      0    92.0    92.0      0     1.03      4.2      4.2      4.2   100    19.5     8.527    21.9    1.869      100      1.14
    20     8  2016    79    4    16.6    1.30     -9      0      0      0      0    92.0    92.0      0     1.03      3.6      3.6      3.6   100    19.5     8.729    23.7    2.072      100      1.24
    21     8  2016    80    4    16.7    1.31     -9      0      0      0      0    92.0    92.0      0     1.03      3.1      3.1      3.1   100    19.5     8.930    25.6    2.288      100      1.34
    22     8  2016    81    4    16.5    1.32     -9      3      0      0      0    92.0    92.0      0     1.03      3.8      3.7      3.7    97    19.5     9.126    27.6    2.517      100      1.45
    23     8  2016    82    4    14.2    1.33     -9      0      0      0      0    92.0    92.0      0     1.03      3.0      3.0      3.0   100    19.5     9.327    29.6    2.760      100      1.56

Legend

DAP          : Days after planting
Stage        : 0: before/after planting
Stage        : 1: emergence or transplant recovery
Stage        : 2: vegetative stage
Stage        : 3: flowering
Stage        : 4: yield formation and ripening
GD           : Growing degrees
Z            : Effective rooting depth
StExp        : Percent water stress reducing leaf expansion
StSto        : Percent water stress inducing stomatal closure
StSen        : Percent water stress triggering early canopy senescence
StSalt       : Percent salinity stress
StWeed       : Relative cover of weeds
CC           : Green total Canopy Cover of crop and weeds
CCw          : Green crop Canopy Cover in weed infested field
StTr         : Percent temperature stress affecting crop transpiration
Kc(Tr)       : Crop coefficient for transpiration
Trx          : Maximum total transpiration of crop and weeds
Tr           : Total transpiration of crop and weeds
TrW          : Crop transpiration in weed infested field
Tr/Trx       : Relative total transpiration of crop and weeds (100 Tr/Trx)
WP           : Crop water productivity adjusted for CO2, soil fertility and products synthesized
Biomass      : Cumulative crop biomass
HI           : Harvest Index adjusted for failure of pollination, inadequate photosynthesis and water stress
Yield Part   : Crop yield (HI x Biomass)
Brelative    : Relative biomass (Reference: no water, no soil fertility, no soil salinity stress, no weed infestation)
WPet         : ET Water productivity for yield part (kg yield produced per m3 water evapotranspired)
